LTspice 24.1.6 for Windows
Circuit: C:\Users\karim\Desktop\Uni\11. Semester\Bachelorarbeit\LTSpice Simulationen\CMOS\Inverter\Draft1.net
Start Time: Sun May 11 12:10:57 2025
solver = Normal
Maximum thread count: 12
tnom = 27
temp = 27
method = trap
C:\Users\karim\Desktop\Uni\11. Semester\Bachelorarbeit\LTSpice Simulationen\CMOS\Inverter\Draft1.net(7): Limiting rise time to 0.002.

V1 X1 0 PULSE(0 1 0 0 0 20m 40m)
^^^^^^^^^^^^^^^^^^^^^^^^^^^^^^^^
C:\Users\karim\Desktop\Uni\11. Semester\Bachelorarbeit\LTSpice Simulationen\CMOS\Inverter\Draft1.net(7): Limiting fall time to 0.002.

V1 X1 0 PULSE(0 1 0 0 0 20m 40m)
^^^^^^^^^^^^^^^^^^^^^^^^^^^^^^^^
C:\Users\karim\Desktop\Uni\11. Semester\Bachelorarbeit\LTSpice Simulationen\CMOS\Inverter\Draft1.net(8): Limiting rise time to 0.002.

V2 X2 0 PULSE(0 1 20m 0 0 20m 40m)
^^^^^^^^^^^^^^^^^^^^^^^^^^^^^^^^^^
C:\Users\karim\Desktop\Uni\11. Semester\Bachelorarbeit\LTSpice Simulationen\CMOS\Inverter\Draft1.net(8): Limiting fall time to 0.002.

V2 X2 0 PULSE(0 1 20m 0 0 20m 40m)
^^^^^^^^^^^^^^^^^^^^^^^^^^^^^^^^^^
Direct Newton iteration for .op point succeeded.
Total elapsed time: 0.118 seconds.

Files loaded:
C:\Users\karim\Desktop\Uni\11. Semester\Bachelorarbeit\LTSpice Simulationen\CMOS\Inverter\Draft1.net
C:\Users\karim\AppData\Local\LTspice\lib\cmp\standard.mos

