LTspice 24.1.6 for Windows
Circuit: C:\Users\karim\Desktop\Uni\11. Semester\Bachelorarbeit\LTSpice Simulationen\LC Schwingkreis mit Messbrücke\Draft2.net
Start Time: Sun Apr 13 21:10:00 2025
solver = Normal
Maximum thread count: 12
tnom = 27
temp = 27
method = trap
Direct Newton iteration for .op point succeeded.
Total elapsed time: 0.097 seconds.

Files loaded:
C:\Users\karim\Desktop\Uni\11. Semester\Bachelorarbeit\LTSpice Simulationen\LC Schwingkreis mit Messbrücke\Draft2.net
C:\Users\karim\AppData\Local\LTspice\lib\cmp\standard.mos
C:\Users\karim\AppData\Local\LTspice\lib\sub\NE555.sub

