LTspice 24.1.6 for Windows
Circuit: C:\Users\karim\Desktop\Uni\11. Semester\Bachelorarbeit\LTSpice Simulationen\NE555\Draft1.net
Start Time: Sun May 11 11:32:27 2025
solver = Normal
Maximum thread count: 12
tnom = 27
temp = 27
method = trap
C:\Users\karim\Desktop\Uni\11. Semester\Bachelorarbeit\LTSpice Simulationen\NE555\Draft1.net(6): Limiting rise time to 0.002.

V2 N002 0 PULSE(0 1 0 0 0 20m 40m)
^^^^^^^^^^^^^^^^^^^^^^^^^^^^^^^^^^
C:\Users\karim\Desktop\Uni\11. Semester\Bachelorarbeit\LTSpice Simulationen\NE555\Draft1.net(6): Limiting fall time to 0.002.

V2 N002 0 PULSE(0 1 0 0 0 20m 40m)
^^^^^^^^^^^^^^^^^^^^^^^^^^^^^^^^^^
Direct Newton iteration for .op point succeeded.
Total elapsed time: 0.079 seconds.

Files loaded:
C:\Users\karim\Desktop\Uni\11. Semester\Bachelorarbeit\LTSpice Simulationen\NE555\Draft1.net
C:\Users\karim\AppData\Local\LTspice\lib\cmp\standard.mos

