Circuit: * C:\users\karim\Desktop\Uni\12. Semester\Bachelorarbeit\LTSpice Simulationen\NE555\Draft2.asc

Direct Newton iteration for .op point succeeded.

Date: Wed Oct 22 22:55:52 2025
Total elapsed time: 0.040 seconds.

tnom = 27
temp = 27
method = modified trap
totiter = 5632
traniter = 5624
tranpoints = 1782
accept = 1609
rejected = 173
matrix size = 14
fillins = 0
solver = Normal
Matrix Compiler1: 384 bytes object code size  0.1/0.1/[0.1]
Matrix Compiler2: off  [0.1]/0.1/0.1


